!!>>>>>>>>>>>>>>>>>>>>>>>>>>>>>>>>>>>>>>>>>>>>>>>>>>>>>>>>>>>>>>>>>>>>>>
!! NEMO/OCE  Configuration namelist : overwrite reference namelist
!!>>>>>>>>>>>>>>>>>>>>>>>>>>>>>>>>>>>>>>>>>>>>>>>>>>>>>>>>>>>>>>>>>>>>>>
!!                      GYRE PISCES configuration                     !!
!!======================================================================
!!              ***  Domain & Run management namelists  ***           !!
!!                                                                    !!
!!   namrun       parameters of the run
!!   namdom       space and time domain
!!   namcfg       parameters of the configuration                       (default: user defined GYRE)
!!   namwad       Wetting and drying                                    (default: OFF)
!!   namtsd       data: temperature & salinity                          (default: OFF)
!!   namc1d       1D configuration options                              (ln_c1d =T)
!!======================================================================
!
!-----------------------------------------------------------------------
&namrun        !   parameters of the run
!-----------------------------------------------------------------------
   cn_exp      =  "GYRE"   !  experience name
   nn_it000    =       1   !  first time step
   nn_itend    =  637200   !  last  time step (59 years, 360-day calendar)
   nn_leapy    =      30   !  Leap year calendar (1) or not (0)
   nn_stock    =  540000   !  frequency of creation of a restart file (every 50 years)
   nn_write    =     300   !  frequency of write in the output file   (modulo referenced to nn_it000)
   nn_istate   =       0   !  output the initial state (1) or not (0)
/
!-----------------------------------------------------------------------
&namcfg        !   parameters of the configuration                      (default: user defined GYRE)
!-----------------------------------------------------------------------
   ln_read_cfg = .false.   !  (=F) user defined configuration           (F => create/check namusr_def)
/
!-----------------------------------------------------------------------
&namtile        !   parameters of the tiling
!-----------------------------------------------------------------------
/
!-----------------------------------------------------------------------
&namusr_def    !   GYRE user defined namelist  
!-----------------------------------------------------------------------
   nn_GYRE     =     5     !  GYRE resolution [1/degrees]
   ln_bench    = .false.   !  ! =T benchmark with gyre: the gridsize is kept constant
   jpkglo      =    31     !  number of model levels
/
!-----------------------------------------------------------------------
&namdom        !   time and space domain
!-----------------------------------------------------------------------
   rn_Dt      =  2880.     !  time step for the dynamics
/
!!======================================================================
!!            ***  Surface Boundary Condition namelists  ***          !!
!!                                                                    !!
!!   namsbc          surface boundary condition manager                 (default: NO selection)
!!   namsbc_flx      flux               formulation                     (ln_flx     =T)
!!   namsbc_blk      Bulk formulae formulation                          (ln_blk     =T)
!!   namsbc_cpl      CouPLed            formulation                     ("key_oasis3" )
!!   namsbc_sas      Stand-Alone Surface module                         (SAS_SRC  only)
!!   namsbc_iif      Ice-IF: use observed ice cover                     (nn_ice = 1   )
!!   namtra_qsr      penetrative solar radiation                        (ln_traqsr  =T)
!!   namsbc_ssr      sea surface restoring term (for T and/or S)        (ln_ssr     =T)
!!   namsbc_rnf      river runoffs                                      (ln_rnf     =T)
!!   namsbc_apr      Atmospheric Pressure                               (ln_apr_dyn =T)
!!   namsbc_isf      ice shelf melting/freezing                         (ln_isfcav  =T : read (ln_read_cfg=T) or set or usr_def_zgr )
!!   namsbc_iscpl    coupling option between land ice model and ocean   (ln_isfcav  =T)
!!   namsbc_wave     external fields from wave model                    (ln_wave    =T)
!!   namberg         iceberg floats                                     (ln_icebergs=T)
!!======================================================================
!
!-----------------------------------------------------------------------
&namsbc        !   Surface Boundary Condition (surface module)          (default: NO selection)
!-----------------------------------------------------------------------
   nn_fsbc     = 1         !  frequency of SBC module call
   ln_usr      = .true.    !  user defined formulation                  (T => check usrdef_sbc)
   ln_traqsr   = .true.    !  Light penetration in the ocean            (T => fill namtra_qsr)
/
!-----------------------------------------------------------------------
&namtra_qsr    !   penetrative solar radiation                          (ln_traqsr =T)
!-----------------------------------------------------------------------
   ln_qsr_2bd  = .true.    !  2 bands              light penetration
   nn_chldta   =      0    !  RGB : Chl data (=1) or cst value (=0)
/
!!======================================================================
!!               ***  Lateral boundary condition  ***                 !!
!!                                                                    !!
!!   namlbc        lateral momentum boundary condition                  (default: NO selection)
!!   namagrif      agrif nested grid ( read by child model only )       ("key_agrif")
!!   nam_tide      Tidal forcing                                        (default: OFF)
!!   nambdy        Unstructured open boundaries                         (default: OFF)
!!   nambdy_dta    Unstructured open boundaries - external data         (see  nambdy)
!!   nambdy_tide   tidal forcing at open boundaries                     (default: OFF)
!!======================================================================
!
!-----------------------------------------------------------------------
&namlbc        !   lateral momentum boundary condition                  (default: NO selection)
!-----------------------------------------------------------------------
   rn_shlat    =    0.     !  free slip
/
!!======================================================================
!!                ***  Top/Bottom boundary condition  ***             !!
!!                                                                    !!
!!   namdrg        top/bottom drag coefficient                          (default: NO selection)
!!   namdrg_top    top    friction                                      (ln_drg_OFF=F & ln_isfcav=T)
!!   namdrg_bot    bottom friction                                      (ln_drg_OFF=F)
!!   nambbc        bottom temperature boundary condition                (default: OFF)
!!   nambbl        bottom boundary layer scheme                         (default: OFF)
!!======================================================================
!
!-----------------------------------------------------------------------
&namdrg        !   top/bottom drag coefficient                          (default: NO selection)
!-----------------------------------------------------------------------
   ln_lin     = .true.     !  linear drag: tau = Cd0*Uc0 * u  (Bagaeva: Cd=0.001 m/s)
/
!-----------------------------------------------------------------------
&namdrg_bot    !   bottom friction                                      (ln_drg_OFF =F)
!-----------------------------------------------------------------------
   rn_Cd0     =  1.e-3     !  drag coefficient [-]
   rn_Uc0     =  1.0       !  ref. velocity [m/s] => linear drag coeff = Cd0*Uc0 = 1e-3 m/s
/
!!======================================================================
!!                        Tracer (T & S) namelists                    !!
!!                                                                    !!
!!   nameos        equation of state                                    (default: NO selection)
!!   namtra_adv    advection scheme                                     (default: NO selection)
!!   namtra_ldf    lateral diffusion scheme                             (default: NO selection)
!!   namtra_mle    mixed layer eddy param. (Fox-Kemper param.)          (default: OFF)
!!   namtra_eiv    eddy induced velocity param.                         (default: OFF)
!!   namtra_dmp    T & S newtonian damping                              (default: OFF)
!!======================================================================
!
!-----------------------------------------------------------------------
&nameos        !   ocean Equation Of Seawater                           (default: NO selection)
!-----------------------------------------------------------------------
   ln_seos     = .true.      !  = Use simplified EOS (linear, T-dependent only)
   rn_a0       =  1.6550e-1  !  thermal expansion coefficient
   rn_b0       =  0.0        !  no haline contraction (salinity constant)
   rn_lambda1  =  0.0        !  cabbeling coeff in T^2  (=0 for linear eos)
   rn_lambda2  =  0.0        !  cabbeling coeff in S^2  (=0 for linear eos)
   rn_mu1      =  0.0        !  thermobaric coeff. in T (=0 for linear eos)
   rn_mu2      =  0.0        !  thermobaric coeff. in S (=0 for linear eos)
   rn_nu       =  0.0        !  cabbeling coeff in T*S  (=0 for linear eos)
/
!-----------------------------------------------------------------------
&namtra_adv    !   advection scheme for tracer                          (default: NO selection)
!-----------------------------------------------------------------------
   ln_traadv_fct =  .true.   !  FCT scheme
      nn_fct_h   =  2               !  =2/4, horizontal 2nd / 4th order 
      nn_fct_v   =  2               !  =2/4, vertical   2nd / COMPACT 4th order 
/
!-----------------------------------------------------------------------
&namtra_ldf    !   lateral diffusion scheme for tracers                 (default: NO selection)
!-----------------------------------------------------------------------
   ln_traldf_lap   =  .true.   !    laplacian operator
   ln_traldf_iso   =  .true.   !  iso-neutral (standard operator)
   nn_aht_ijk_t    = 0         !  = 0   constant = 1/2  Ud*Ld   (lap case) 
      rn_Ud        = 0.02           !  lateral diffusive velocity [m/s]
      rn_Ld        = 20.e+3         !  lateral diffusive length   [m]
/
!!======================================================================
!!                      ***  Dynamics namelists  ***                  !!
!!                                                                    !!
!!   nam_vvl       vertical coordinate options                          (default: z-star)
!!   namdyn_adv    formulation of the momentum advection                (default: NO selection)
!!   namdyn_vor    advection scheme                                     (default: NO selection)
!!   namdyn_hpg    hydrostatic pressure gradient                        (default: NO selection)
!!   namdyn_spg    surface pressure gradient                            (default: NO selection)
!!   namdyn_ldf    lateral diffusion scheme                             (default: NO selection)
!!   namdta_dyn    offline TOP: dynamics read in files                  (OFF_SRC only)
!!======================================================================
!
!-----------------------------------------------------------------------
&namdyn_adv    !   formulation of the momentum advection                (default: NO selection)
!-----------------------------------------------------------------------
   ln_dynadv_vec = .true.  !  vector form - 2nd centered scheme
     nn_dynkeg     = 0        ! grad(KE) scheme: =0   C2  ;  =1   Hollingsworth correction
/
!-----------------------------------------------------------------------
&namdyn_vor    !   Vorticity / Coriolis scheme                          (default: NO selection)
!-----------------------------------------------------------------------
   ln_dynvor_ene = .true.  !  energy conserving scheme
/
!-----------------------------------------------------------------------
&namdyn_hpg    !   Hydrostatic pressure gradient option                 (default: NO selection)
!-----------------------------------------------------------------------
   ln_hpg_zco  = .true.    !  z-coordinate - full steps
/
!-----------------------------------------------------------------------
&namdyn_spg    !   surface pressure gradient                            (default: NO selection)
!-----------------------------------------------------------------------
   ln_dynspg_ts  = .true.  !  split-explicit free surface
      nn_bt_flt     = 3          ! Time filtering with dissipative Forward Backward
      rn_bt_alpha   = 0.07       ! Dissipative Forward Backward parameter
/
!-----------------------------------------------------------------------
&namdyn_ldf    !   lateral diffusion on momentum                        (default: NO selection)
!-----------------------------------------------------------------------
   ln_dynldf_blp =  .true.     !    bilaplacian operator (Bagaeva uses biharmonic)
   ln_dynldf_lev =  .true.     !  iso-level
   nn_ahm_ijk_t  = 0           !  = 0  constant = 1/12 Uv*Lv^3 (blp case)
      rn_Uv      = 0.1              !  lateral viscous velocity [m/s]
      rn_Lv      = 20.e+3           !  lateral viscous length   [m]  => ahm = 6.67e10 m4/s
/
!!======================================================================
!!                     vertical physics namelists                     !!
!!                                                                    !!
!!    namzdf        vertical physics manager                            (default: NO selection)
!!    namzdf_ric    richardson number vertical mixing                   (ln_zdfric=T)
!!    namzdf_tke    TKE vertical mixing                                 (ln_zdftke=T)
!!    namzdf_gls    GLS vertical mixing                                 (ln_zdfgls=T)
!!    namzdf_osm    OSM vertical diffusion                              (ln_zdfosm=T)
!!    namzdf_iwm    tidal mixing parameterization                       (ln_zdfiwm=T)
!!======================================================================
!
!-----------------------------------------------------------------------
&namzdf        !   vertical physics                                     (default: NO selection)
!-----------------------------------------------------------------------
   ln_zdfric   = .true.       !  Richardson number mixing (Pacanowski-Philander)
   ln_zdfevd   = .true.       !  enhanced vertical diffusion
      nn_evdm     =    1         ! apply on tracer (=0) or on tracer and momentum (=1)
      rn_evd      =  100.        ! mixing coefficient [m2/s]
   !                       ! coefficients
   rn_avm0     =   1.2e-4     !  vertical eddy viscosity   [m2/s]       (background Kz if ln_zdfcst=F)
   rn_avt0     =   1.2e-5     !  vertical eddy diffusivity [m2/s]       (background Kz if ln_zdfcst=F)
   nn_avb      =    0         !  profile for background avt & avm (=1) or not (=0)
   nn_havtb    =    0         !  horizontal shape for avtb (=1) or not (=0)
/
!-----------------------------------------------------------------------
&namzdf_ric    !   Richardson number dependent vertical diffusion       (ln_zdfric =T)
!-----------------------------------------------------------------------
   rn_avmri    =  100.e-4     !  maximum vertical viscosity [m2/s]  (PP81 default)
   rn_alp      =    5.        !  coefficient of the parameterization
   nn_ric      =    2         !  exponent of the parameterization
/
!!======================================================================
!!                  ***  Diagnostics namelists  ***                   !!
!!                                                                    !!
!!   namtrd       dynamics and/or tracer trends                         (default: OFF)
!!   namdiu       Cool skin and warm layer models                       (default: OFF)
!!   namdiu       Cool skin and warm layer models                       (default: OFF)
!!   nam_diadct   transports through some sections                      (default: OFF)
!!   namnc4       netcdf4 chunking and compression settings
!!======================================================================
!
!!======================================================================
!!                  ***  Miscellaneous namelists  ***                 !!
!!                                                                    !!
!!   nammpp            Massively Parallel Processing
!!   namctl            Control prints                                   (default: OFF)
!!   namsto            Stochastic parametrization of EOS                (default: OFF)
!!======================================================================
!
!
!-----------------------------------------------------------------------
&nammpp        !   Massively Parallel Processing
!-----------------------------------------------------------------------
/
!-----------------------------------------------------------------------
&namctl        !   Control prints                                       (default: OFF)
!-----------------------------------------------------------------------
/
!-----------------------------------------------------------------------
&namsto        ! Stochastic parametrization of EOS                      (default: OFF)
!-----------------------------------------------------------------------
/
